LTspice 24.0.12 for Windows
Circuit: * D:\Documents\github\TIPE_Dynamo\Draft2.asc
Start Time: Thu May 22 21:09:47 2025
solver = Normal
Maximum thread count: 8
tnom = 27
temp = 27
method = modified trap
.OP point found by inspection.
Total elapsed time: 0.134 seconds.

