LTspice 24.0.12 for Windows
Circuit: * D:\Documents\github\TIPE_Dynamo\reelight.asc
Start Time: Thu May 22 20:39:10 2025
solver = Normal
Maximum thread count: 8
tnom = 27
temp = 27
method = modified trap
WARNING: Node N004 is floating.
WARNING: Node N007 is floating.

.OP point found by inspection.
Total elapsed time: 0.267 seconds.

